129
parent-11
C       -3.5136720      -6.9310340      -1.2849020
C       -4.8530240      -6.5592320      -1.2670220
C       -5.6061320      -6.6087730      -0.0808910
C       -4.9997020      -7.1947950      1.0452440
C       -3.6580500      -7.5625260      1.0287660
C       -2.8655040      -7.3659790      -0.1163370
C       -1.3854340      -7.3705420      -0.0641840
C       -0.5911480      -7.6415740      -1.1923680
C       0.7604240       -7.3114350      -1.2154790
C       1.3770780       -6.6911760      -0.1136800
C       0.6120640       -6.5435000      1.0562070
C       -0.7368350      -6.8772100      1.0810380
H       -1.3178660      -6.6495140      1.9691110
H       1.0483640       -6.0643900      1.9267340
C       2.6978060       -6.0283460      -0.2163310
C       3.0929010       -5.4381270      -1.4295630
C       4.1736780       -4.5654520      -1.4880060
C       4.9054680       -4.2378080      -0.3341090
C       4.5834360       -4.9166540      0.8543100
C       3.5064920       -5.7952020      0.9107880
H       3.2715600       -6.2824240      1.8522990
H       5.1671530       -4.7336360      1.7516980
C       5.8453840       -3.0949190      -0.3553910
C       6.6060830       -2.7723490      -1.4942360
C       7.3025820       -1.5725650      -1.5772070
C       7.2484730       -0.6430800      -0.5235760
C       6.5618930       -0.9981670      0.6515480
C       5.8779060       -2.2031110      0.7310440
H       6.5435550       -0.3044110      1.4849220
C       7.7549260       0.6917650       -0.6413560
C       7.6542220       1.9316070       -0.5999320
C       6.8521540       3.1052920       -0.4033460
C       6.0803500       3.2187580       0.7697730
C       5.1112770       4.2060920       0.8857180
C       4.8661700       5.1130030       -0.1612910
C       5.7048330       5.0556440       -1.2886460
C       6.6894100       4.0796960       -1.4055140
H       7.3064300       4.0320460       -2.2969080
C       3.6566620       5.9649740       -0.1178960
C       2.8744820       6.1315630       -1.2731900
C       1.5987020       6.6802320       -1.2038570
C       1.0493490       7.0951100       0.0219750
C       1.8814550       7.0420770       1.1549280
C       3.1540630       6.4848880       1.0877790
H       3.7567640       6.4274100       1.9894120
H       1.5175020       7.4120730       2.1086080
C       -0.4009480      7.3787370       0.1255000
C       -1.1046540      7.0006220       1.2821310
C       -2.4938090      6.9683730       1.3016980
C       -3.2455830      7.3081360       0.1637710
C       -2.5464550      7.8086470       -0.9487460
C       -1.1554740      7.8457390       -0.9661450
H       -0.6487870      8.2086330       -1.8553510
H       -3.0961170      8.1380420       -1.8256750
C       -4.6740970      6.9230220       0.0987020
C       -5.4925850      6.8806200       1.2416420
C       -6.6959210      6.1825410       1.2375890
C       -7.1306290      5.4912110       0.0920470
C       -6.3870540      5.6652840       -1.0883090
C       -5.1867860      6.3667020       -1.0855610
H       -4.5850510      6.3814480       -1.9888960
H       -6.6885500      5.1482140       -1.9936040
C       -8.1554860      4.4230490       0.1545550
C       -8.2544360      3.6343590       1.3139060
C       -8.8963930      2.4021480       1.2924120
C       -9.4680590      1.9005600       0.1101260
C       -9.5142000      2.7625180       -1.0006720
C       -8.8722250      3.9969970       -0.9786730
H       -8.8824320      4.6131940       -1.8728970
H       -10.0097510     2.4409270       -1.9120460
C       -9.7359220      0.4473020       0.0028760
C       -9.3939230      -0.2258570      -1.1828070
C       -9.2212760      -1.6049710      -1.2013400
C       -9.3827910      -2.3728070      -0.0350320
C       -9.8971100      -1.7212370      1.1008690
C       -10.0701360     -0.3408710      1.1193650
H       -10.4119600     0.1365650       2.0330050
H       -10.1074440     -2.2922630      2.0004410
C       -8.7641160      -3.7172780      0.0341620
C       -8.0789260      -4.0920710      1.2029990
C       -7.1512880      -5.1266450      1.1919130
C       -6.8664940      -5.8352490      0.0117180
C       -7.6747140      -5.5721020      -1.1095030
C       -8.6026590      -4.5351420      -1.0989400
H       -9.1681940      -4.3230810      -2.0016080
H       -7.5377030      -6.1481900      -2.0198850
H       -6.5535090      -5.3008070      2.0807410
H       -8.1778610      -3.4885530      2.0995280
H       -8.8315990      -2.0709570      -2.1007290
H       -9.1340050      0.3453350       -2.0683060
H       -8.8421350      1.7692430       2.1723140
H       -7.7185500      3.9280560       2.2106910
H       -7.2800050      6.1318250       2.1516840
H       -5.1613940      7.3598500       2.1582840
H       -2.9976090      6.5714520       2.1773350
H       -0.5613730      6.6278910       2.1444180
H       0.9863760       6.6966330       -2.0997420
H       3.2286630       5.7373890       -2.2207770
H       6.2092370       2.4874850       1.5614200
N       9.7248440       2.6541720       -1.1737950
N       10.1629990      1.5801080       -1.2954920
N       9.8463400       0.3728680       -1.3746830
C       10.7477680      -0.6660330      -0.8238970
H       10.7529560      -1.4941550      -1.5357190
H       7.8681520       -1.3279970      -2.4702950
H       4.3907580       -4.0567500      -2.4221680
H       2.4900510       -5.5857920      -2.3198830
H       1.3353480       -7.5038730      -2.1163470
H       -1.0444250      -8.0801610      -2.0765530
H       -3.2076230      -7.9631190      1.9322150
H       -5.5692780      -7.3170460      1.9617110
H       -5.2837370      -6.1139690      -2.1580880
H       -2.9360910      -6.7690770      -2.1896000
H       11.7640350      -0.2651490      -0.7656320
H       4.4787950       4.2241630       1.7678340
H       5.5684500       5.7708070       -2.0945610
H       6.6355470       -3.4625080      -2.3321620
H       5.3011240       -2.4252980      1.6233070
C       10.2628080      -1.1456230      0.5275000
C       9.8676760       -2.4735930      0.7033680
C       10.1574000      -0.2533340      1.6012670
C       9.3716890       -2.9093880      1.9332000
H       9.9264900       -3.1643130      -0.1331520
C       9.6588580       -0.6841410      2.8292190
H       10.4490480      0.7852160       1.4705030
C       9.2635310       -2.0146010      2.9977780
H       9.0567550       -3.9419400      2.0530410
H       9.5764660       0.0171440       3.6547350
H       8.8693630       -2.3482790      3.9533920

