20
0.0
O      3.6002210      0.1159970      0.0654650
C      2.3054820      -0.1963380      0.2696830
O      1.8834480      -0.6737680      1.3003620
C      1.4744820      0.1438910      -0.9627900
N      0.1007510      -0.2593340      -0.8473740
C      -0.8547140      0.5599050      -0.3437210
O      -0.6477680      1.7343190      -0.0293910
C      -2.2559140      -0.0772680      -0.2567320
N      -2.1604690      -1.5446700      -0.3162940
H      -1.9775830      -1.9117790      0.6165190
H      -3.0551840      -1.9342490      -0.6011090
H      -2.7674870      0.2429150      -1.1745150
C      -3.0298450      0.4725710      0.9469200
H      -4.0601280      0.1056760      0.9310550
H      -2.5645030      0.1495190      1.8850130
H      -3.0435700      1.5644810      0.9338000
H      -0.1837500      -1.2216490      -0.9965210
H      1.5155600      1.2284720      -1.1017700
H      1.9423790      -0.3191700      -1.8363440
H      4.0881330      -0.1051330      0.8779000

